Version 4
SHEET 1 880 680
WIRE 16 -272 -32 -272
WIRE 112 -272 16 -272
WIRE 224 -272 192 -272
WIRE 256 -272 224 -272
WIRE 416 -272 336 -272
WIRE 560 -272 496 -272
WIRE 416 -144 416 -272
WIRE 16 -128 16 -272
WIRE 96 -128 80 -128
WIRE 320 -128 176 -128
WIRE 384 -128 320 -128
WIRE 544 -112 448 -112
WIRE 224 -96 224 -272
WIRE 384 -96 224 -96
WIRE 416 0 416 -80
WIRE 320 96 320 -128
WIRE 336 96 320 96
WIRE 544 96 544 -112
WIRE 544 96 416 96
FLAG 560 -272 0
FLAG 416 0 0
FLAG -32 -272 0
SYMBOL Misc\\battery 400 -272 R270
WINDOW 0 32 56 VTop 2
WINDOW 3 -32 56 VBottom 2
WINDOW 123 0 0 Left 0
WINDOW 39 0 0 Left 0
SYMATTR InstName V1
SYMATTR Value 5v
SYMBOL OpAmps\\opamp2 416 -176 R0
SYMATTR InstName U2
SYMATTR Value LM358
SYMBOL res 352 -288 R90
WINDOW 0 0 56 VBottom 2
WINDOW 3 32 56 VTop 2
SYMATTR InstName R1
SYMATTR Value 10k
SYMBOL res 96 -256 R270
WINDOW 0 32 56 VTop 2
WINDOW 3 0 56 VBottom 2
SYMATTR InstName R2
SYMATTR Value 10k
SYMBOL res 192 -144 R90
WINDOW 0 0 56 VBottom 2
WINDOW 3 32 56 VTop 2
SYMATTR InstName R3
SYMATTR Value 1k
SYMBOL cap 80 -144 R90
WINDOW 0 0 32 VBottom 2
WINDOW 3 32 32 VTop 2
SYMATTR InstName C1
SYMATTR Value 10µ
SYMBOL res 432 80 R90
WINDOW 0 0 56 VBottom 2
WINDOW 3 32 56 VTop 2
SYMATTR InstName R4
SYMATTR Value 100k
TEXT 488 -184 Left 2 !.lib LM358.lib
TEXT -52 146 Left 2 !.tran 0 7m 5m
